<routes>
            <vType id="car" accel="0.8" decel="4.5" sigma="0.5" length="5" minGap="2.5" maxSpeed="25" guiShape="passenger"/>
            <route id="right" edges="E0 E1"/>
            <route id="left" edges="-E1 -E0"/>
            <route id="down" edges="E2 E3"/>
            <route id="up" edges="-E3 -E2"/>
            <route id="right-up" edges="E0 -E2"/>
            <route id="down-right" edges="E2 E1"/>
            <route id="left-down" edges="-E1 E3"/>
            <route id="up-left" edges="-E3 -E0"/>
    <vehicle id="left-down_0" type="car" route="left-down" depart="1" departSpeed="10" />
    <vehicle id="left-down_1" type="car" route="left-down" depart="1" departSpeed="10" />
    <vehicle id="down-right_2" type="car" route="down-right" depart="2" departSpeed="10" />
    <vehicle id="down_3" type="car" route="down" depart="2" departSpeed="10" />
    <vehicle id="left_4" type="car" route="left" depart="7" departSpeed="10" />
    <vehicle id="down-right_5" type="car" route="down-right" depart="10" departSpeed="10" />
    <vehicle id="left-down_6" type="car" route="left-down" depart="12" departSpeed="10" />
    <vehicle id="right-up_7" type="car" route="right-up" depart="13" departSpeed="10" />
    <vehicle id="up-left_8" type="car" route="up-left" depart="14" departSpeed="10" />
    <vehicle id="up-left_9" type="car" route="up-left" depart="14" departSpeed="10" />
    <vehicle id="up_10" type="car" route="up" depart="16" departSpeed="10" />
    <vehicle id="up-left_11" type="car" route="up-left" depart="18" departSpeed="10" />
    <vehicle id="up_12" type="car" route="up" depart="20" departSpeed="10" />
    <vehicle id="up_13" type="car" route="up" depart="20" departSpeed="10" />
    <vehicle id="up-left_14" type="car" route="up-left" depart="20" departSpeed="10" />
    <vehicle id="right_15" type="car" route="right" depart="20" departSpeed="10" />
    <vehicle id="up_16" type="car" route="up" depart="22" departSpeed="10" />
    <vehicle id="down_17" type="car" route="down" depart="32" departSpeed="10" />
    <vehicle id="left-down_18" type="car" route="left-down" depart="32" departSpeed="10" />
    <vehicle id="left-down_19" type="car" route="left-down" depart="33" departSpeed="10" />
    <vehicle id="right_20" type="car" route="right" depart="36" departSpeed="10" />
    <vehicle id="left_21" type="car" route="left" depart="36" departSpeed="10" />
    <vehicle id="left_22" type="car" route="left" depart="37" departSpeed="10" />
    <vehicle id="left_23" type="car" route="left" depart="39" departSpeed="10" />
    <vehicle id="down_24" type="car" route="down" depart="41" departSpeed="10" />
    <vehicle id="right-up_25" type="car" route="right-up" depart="43" departSpeed="10" />
    <vehicle id="up_26" type="car" route="up" depart="47" departSpeed="10" />
    <vehicle id="down_27" type="car" route="down" depart="47" departSpeed="10" />
    <vehicle id="down_28" type="car" route="down" depart="47" departSpeed="10" />
    <vehicle id="right_29" type="car" route="right" depart="50" departSpeed="10" />
    <vehicle id="right_30" type="car" route="right" depart="51" departSpeed="10" />
    <vehicle id="right_31" type="car" route="right" depart="51" departSpeed="10" />
    <vehicle id="right_32" type="car" route="right" depart="54" departSpeed="10" />
    <vehicle id="left_33" type="car" route="left" depart="59" departSpeed="10" />
    <vehicle id="down_34" type="car" route="down" depart="59" departSpeed="10" />
    <vehicle id="down_35" type="car" route="down" depart="63" departSpeed="10" />
    <vehicle id="left_36" type="car" route="left" depart="64" departSpeed="10" />
    <vehicle id="down_37" type="car" route="down" depart="67" departSpeed="10" />
    <vehicle id="up_38" type="car" route="up" depart="68" departSpeed="10" />
    <vehicle id="up_39" type="car" route="up" depart="69" departSpeed="10" />
    <vehicle id="left_40" type="car" route="left" depart="70" departSpeed="10" />
    <vehicle id="up_41" type="car" route="up" depart="73" departSpeed="10" />
    <vehicle id="down_42" type="car" route="down" depart="77" departSpeed="10" />
    <vehicle id="up_43" type="car" route="up" depart="77" departSpeed="10" />
    <vehicle id="up-left_44" type="car" route="up-left" depart="78" departSpeed="10" />
    <vehicle id="left_45" type="car" route="left" depart="79" departSpeed="10" />
    <vehicle id="left_46" type="car" route="left" depart="79" departSpeed="10" />
    <vehicle id="up_47" type="car" route="up" depart="80" departSpeed="10" />
    <vehicle id="left-down_48" type="car" route="left-down" depart="83" departSpeed="10" />
    <vehicle id="down_49" type="car" route="down" depart="83" departSpeed="10" />
    <vehicle id="right_50" type="car" route="right" depart="85" departSpeed="10" />
    <vehicle id="up_51" type="car" route="up" depart="88" departSpeed="10" />
    <vehicle id="left-down_52" type="car" route="left-down" depart="89" departSpeed="10" />
    <vehicle id="down_53" type="car" route="down" depart="89" departSpeed="10" />
    <vehicle id="left_54" type="car" route="left" depart="91" departSpeed="10" />
    <vehicle id="up_55" type="car" route="up" depart="94" departSpeed="10" />
    <vehicle id="right-up_56" type="car" route="right-up" depart="95" departSpeed="10" />
    <vehicle id="up_57" type="car" route="up" depart="97" departSpeed="10" />
    <vehicle id="up-left_58" type="car" route="up-left" depart="97" departSpeed="10" />
    <vehicle id="up_59" type="car" route="up" depart="99" departSpeed="10" />
    <vehicle id="right-up_60" type="car" route="right-up" depart="102" departSpeed="10" />
    <vehicle id="left-down_61" type="car" route="left-down" depart="104" departSpeed="10" />
    <vehicle id="down_62" type="car" route="down" depart="104" departSpeed="10" />
    <vehicle id="left_63" type="car" route="left" depart="108" departSpeed="10" />
    <vehicle id="right_64" type="car" route="right" depart="110" departSpeed="10" />
    <vehicle id="up-left_65" type="car" route="up-left" depart="110" departSpeed="10" />
    <vehicle id="up_66" type="car" route="up" depart="110" departSpeed="10" />
    <vehicle id="left-down_67" type="car" route="left-down" depart="110" departSpeed="10" />
    <vehicle id="left_68" type="car" route="left" depart="114" departSpeed="10" />
    <vehicle id="left-down_69" type="car" route="left-down" depart="115" departSpeed="10" />
    <vehicle id="up_70" type="car" route="up" depart="115" departSpeed="10" />
    <vehicle id="up_71" type="car" route="up" depart="115" departSpeed="10" />
    <vehicle id="up_72" type="car" route="up" depart="116" departSpeed="10" />
    <vehicle id="left_73" type="car" route="left" depart="117" departSpeed="10" />
    <vehicle id="right_74" type="car" route="right" depart="118" departSpeed="10" />
    <vehicle id="left_75" type="car" route="left" depart="118" departSpeed="10" />
    <vehicle id="left_76" type="car" route="left" depart="118" departSpeed="10" />
    <vehicle id="left_77" type="car" route="left" depart="123" departSpeed="10" />
    <vehicle id="right_78" type="car" route="right" depart="125" departSpeed="10" />
    <vehicle id="right_79" type="car" route="right" depart="126" departSpeed="10" />
    <vehicle id="up-left_80" type="car" route="up-left" depart="127" departSpeed="10" />
    <vehicle id="down-right_81" type="car" route="down-right" depart="134" departSpeed="10" />
    <vehicle id="down-right_82" type="car" route="down-right" depart="135" departSpeed="10" />
    <vehicle id="up_83" type="car" route="up" depart="136" departSpeed="10" />
    <vehicle id="right_84" type="car" route="right" depart="139" departSpeed="10" />
    <vehicle id="down_85" type="car" route="down" depart="140" departSpeed="10" />
    <vehicle id="up_86" type="car" route="up" depart="142" departSpeed="10" />
    <vehicle id="right-up_87" type="car" route="right-up" depart="142" departSpeed="10" />
    <vehicle id="down_88" type="car" route="down" depart="143" departSpeed="10" />
    <vehicle id="right-up_89" type="car" route="right-up" depart="143" departSpeed="10" />
    <vehicle id="down_90" type="car" route="down" depart="148" departSpeed="10" />
    <vehicle id="left_91" type="car" route="left" depart="149" departSpeed="10" />
    <vehicle id="right_92" type="car" route="right" depart="151" departSpeed="10" />
    <vehicle id="up_93" type="car" route="up" depart="151" departSpeed="10" />
    <vehicle id="left_94" type="car" route="left" depart="153" departSpeed="10" />
    <vehicle id="left_95" type="car" route="left" depart="153" departSpeed="10" />
    <vehicle id="right_96" type="car" route="right" depart="153" departSpeed="10" />
    <vehicle id="right_97" type="car" route="right" depart="155" departSpeed="10" />
    <vehicle id="up_98" type="car" route="up" depart="155" departSpeed="10" />
    <vehicle id="left_99" type="car" route="left" depart="160" departSpeed="10" />
    <vehicle id="left_100" type="car" route="left" depart="160" departSpeed="10" />
    <vehicle id="up-left_101" type="car" route="up-left" depart="161" departSpeed="10" />
    <vehicle id="right_102" type="car" route="right" depart="163" departSpeed="10" />
    <vehicle id="down_103" type="car" route="down" depart="163" departSpeed="10" />
    <vehicle id="left_104" type="car" route="left" depart="165" departSpeed="10" />
    <vehicle id="down_105" type="car" route="down" depart="166" departSpeed="10" />
    <vehicle id="right-up_106" type="car" route="right-up" depart="166" departSpeed="10" />
    <vehicle id="right-up_107" type="car" route="right-up" depart="166" departSpeed="10" />
    <vehicle id="left-down_108" type="car" route="left-down" depart="167" departSpeed="10" />
    <vehicle id="right_109" type="car" route="right" depart="167" departSpeed="10" />
    <vehicle id="right-up_110" type="car" route="right-up" depart="169" departSpeed="10" />
    <vehicle id="left_111" type="car" route="left" depart="169" departSpeed="10" />
    <vehicle id="down_112" type="car" route="down" depart="169" departSpeed="10" />
    <vehicle id="down_113" type="car" route="down" depart="169" departSpeed="10" />
    <vehicle id="down_114" type="car" route="down" depart="170" departSpeed="10" />
    <vehicle id="up_115" type="car" route="up" depart="171" departSpeed="10" />
    <vehicle id="left_116" type="car" route="left" depart="171" departSpeed="10" />
    <vehicle id="right_117" type="car" route="right" depart="171" departSpeed="10" />
    <vehicle id="up_118" type="car" route="up" depart="172" departSpeed="10" />
    <vehicle id="right-up_119" type="car" route="right-up" depart="173" departSpeed="10" />
    <vehicle id="right_120" type="car" route="right" depart="173" departSpeed="10" />
    <vehicle id="right-up_121" type="car" route="right-up" depart="175" departSpeed="10" />
    <vehicle id="down_122" type="car" route="down" depart="176" departSpeed="10" />
    <vehicle id="up_123" type="car" route="up" depart="178" departSpeed="10" />
    <vehicle id="up_124" type="car" route="up" depart="178" departSpeed="10" />
    <vehicle id="up-left_125" type="car" route="up-left" depart="178" departSpeed="10" />
    <vehicle id="up_126" type="car" route="up" depart="179" departSpeed="10" />
    <vehicle id="right_127" type="car" route="right" depart="182" departSpeed="10" />
    <vehicle id="right_128" type="car" route="right" depart="183" departSpeed="10" />
    <vehicle id="left_129" type="car" route="left" depart="183" departSpeed="10" />
    <vehicle id="down_130" type="car" route="down" depart="184" departSpeed="10" />
    <vehicle id="right_131" type="car" route="right" depart="184" departSpeed="10" />
    <vehicle id="left_132" type="car" route="left" depart="187" departSpeed="10" />
    <vehicle id="left_133" type="car" route="left" depart="187" departSpeed="10" />
    <vehicle id="right_134" type="car" route="right" depart="188" departSpeed="10" />
    <vehicle id="left-down_135" type="car" route="left-down" depart="188" departSpeed="10" />
    <vehicle id="right_136" type="car" route="right" depart="189" departSpeed="10" />
    <vehicle id="left_137" type="car" route="left" depart="189" departSpeed="10" />
    <vehicle id="down-right_138" type="car" route="down-right" depart="189" departSpeed="10" />
    <vehicle id="right-up_139" type="car" route="right-up" depart="189" departSpeed="10" />
    <vehicle id="up_140" type="car" route="up" depart="190" departSpeed="10" />
    <vehicle id="left-down_141" type="car" route="left-down" depart="190" departSpeed="10" />
    <vehicle id="left_142" type="car" route="left" depart="192" departSpeed="10" />
    <vehicle id="right_143" type="car" route="right" depart="194" departSpeed="10" />
    <vehicle id="left-down_144" type="car" route="left-down" depart="194" departSpeed="10" />
    <vehicle id="up_145" type="car" route="up" depart="196" departSpeed="10" />
    <vehicle id="down-right_146" type="car" route="down-right" depart="196" departSpeed="10" />
    <vehicle id="left_147" type="car" route="left" depart="197" departSpeed="10" />
    <vehicle id="up_148" type="car" route="up" depart="198" departSpeed="10" />
    <vehicle id="right_149" type="car" route="right" depart="199" departSpeed="10" />
    <vehicle id="down_150" type="car" route="down" depart="200" departSpeed="10" />
    <vehicle id="down-right_151" type="car" route="down-right" depart="201" departSpeed="10" />
    <vehicle id="up_152" type="car" route="up" depart="202" departSpeed="10" />
    <vehicle id="left_153" type="car" route="left" depart="204" departSpeed="10" />
    <vehicle id="left_154" type="car" route="left" depart="206" departSpeed="10" />
    <vehicle id="right-up_155" type="car" route="right-up" depart="207" departSpeed="10" />
    <vehicle id="up-left_156" type="car" route="up-left" depart="207" departSpeed="10" />
    <vehicle id="down_157" type="car" route="down" depart="207" departSpeed="10" />
    <vehicle id="down_158" type="car" route="down" depart="210" departSpeed="10" />
    <vehicle id="left_159" type="car" route="left" depart="214" departSpeed="10" />
    <vehicle id="right_160" type="car" route="right" depart="215" departSpeed="10" />
    <vehicle id="down_161" type="car" route="down" depart="217" departSpeed="10" />
    <vehicle id="left_162" type="car" route="left" depart="217" departSpeed="10" />
    <vehicle id="left-down_163" type="car" route="left-down" depart="218" departSpeed="10" />
    <vehicle id="right_164" type="car" route="right" depart="220" departSpeed="10" />
    <vehicle id="down_165" type="car" route="down" depart="220" departSpeed="10" />
    <vehicle id="right_166" type="car" route="right" depart="221" departSpeed="10" />
    <vehicle id="right_167" type="car" route="right" depart="223" departSpeed="10" />
    <vehicle id="up_168" type="car" route="up" depart="223" departSpeed="10" />
    <vehicle id="down_169" type="car" route="down" depart="224" departSpeed="10" />
    <vehicle id="right_170" type="car" route="right" depart="226" departSpeed="10" />
    <vehicle id="up_171" type="car" route="up" depart="227" departSpeed="10" />
    <vehicle id="right_172" type="car" route="right" depart="228" departSpeed="10" />
    <vehicle id="down-right_173" type="car" route="down-right" depart="230" departSpeed="10" />
    <vehicle id="up_174" type="car" route="up" depart="236" departSpeed="10" />
    <vehicle id="left_175" type="car" route="left" depart="237" departSpeed="10" />
    <vehicle id="right_176" type="car" route="right" depart="237" departSpeed="10" />
    <vehicle id="down_177" type="car" route="down" depart="237" departSpeed="10" />
    <vehicle id="left_178" type="car" route="left" depart="238" departSpeed="10" />
    <vehicle id="right_179" type="car" route="right" depart="238" departSpeed="10" />
    <vehicle id="down-right_180" type="car" route="down-right" depart="242" departSpeed="10" />
    <vehicle id="left_181" type="car" route="left" depart="243" departSpeed="10" />
    <vehicle id="down-right_182" type="car" route="down-right" depart="244" departSpeed="10" />
    <vehicle id="down_183" type="car" route="down" depart="245" departSpeed="10" />
    <vehicle id="right_184" type="car" route="right" depart="247" departSpeed="10" />
    <vehicle id="left_185" type="car" route="left" depart="249" departSpeed="10" />
    <vehicle id="right_186" type="car" route="right" depart="250" departSpeed="10" />
    <vehicle id="left-down_187" type="car" route="left-down" depart="250" departSpeed="10" />
    <vehicle id="up-left_188" type="car" route="up-left" depart="250" departSpeed="10" />
    <vehicle id="left_189" type="car" route="left" depart="251" departSpeed="10" />
    <vehicle id="right-up_190" type="car" route="right-up" depart="252" departSpeed="10" />
    <vehicle id="down_191" type="car" route="down" depart="255" departSpeed="10" />
    <vehicle id="left_192" type="car" route="left" depart="255" departSpeed="10" />
    <vehicle id="left_193" type="car" route="left" depart="256" departSpeed="10" />
    <vehicle id="right_194" type="car" route="right" depart="256" departSpeed="10" />
    <vehicle id="left-down_195" type="car" route="left-down" depart="259" departSpeed="10" />
    <vehicle id="left-down_196" type="car" route="left-down" depart="261" departSpeed="10" />
    <vehicle id="right_197" type="car" route="right" depart="261" departSpeed="10" />
    <vehicle id="right-up_198" type="car" route="right-up" depart="262" departSpeed="10" />
    <vehicle id="left_199" type="car" route="left" depart="262" departSpeed="10" />
    <vehicle id="down_200" type="car" route="down" depart="263" departSpeed="10" />
    <vehicle id="right-up_201" type="car" route="right-up" depart="264" departSpeed="10" />
    <vehicle id="right_202" type="car" route="right" depart="266" departSpeed="10" />
    <vehicle id="right_203" type="car" route="right" depart="267" departSpeed="10" />
    <vehicle id="left_204" type="car" route="left" depart="268" departSpeed="10" />
    <vehicle id="up_205" type="car" route="up" depart="268" departSpeed="10" />
    <vehicle id="down_206" type="car" route="down" depart="270" departSpeed="10" />
    <vehicle id="down_207" type="car" route="down" depart="270" departSpeed="10" />
    <vehicle id="left_208" type="car" route="left" depart="271" departSpeed="10" />
    <vehicle id="up-left_209" type="car" route="up-left" depart="272" departSpeed="10" />
    <vehicle id="down_210" type="car" route="down" depart="273" departSpeed="10" />
    <vehicle id="left-down_211" type="car" route="left-down" depart="273" departSpeed="10" />
    <vehicle id="up_212" type="car" route="up" depart="273" departSpeed="10" />
    <vehicle id="down-right_213" type="car" route="down-right" depart="274" departSpeed="10" />
    <vehicle id="down_214" type="car" route="down" depart="274" departSpeed="10" />
    <vehicle id="left_215" type="car" route="left" depart="275" departSpeed="10" />
    <vehicle id="right-up_216" type="car" route="right-up" depart="276" departSpeed="10" />
    <vehicle id="down_217" type="car" route="down" depart="278" departSpeed="10" />
    <vehicle id="down_218" type="car" route="down" depart="278" departSpeed="10" />
    <vehicle id="up_219" type="car" route="up" depart="279" departSpeed="10" />
    <vehicle id="left-down_220" type="car" route="left-down" depart="281" departSpeed="10" />
    <vehicle id="down-right_221" type="car" route="down-right" depart="285" departSpeed="10" />
    <vehicle id="right_222" type="car" route="right" depart="286" departSpeed="10" />
    <vehicle id="left-down_223" type="car" route="left-down" depart="287" departSpeed="10" />
    <vehicle id="right_224" type="car" route="right" depart="287" departSpeed="10" />
    <vehicle id="right_225" type="car" route="right" depart="290" departSpeed="10" />
    <vehicle id="down-right_226" type="car" route="down-right" depart="292" departSpeed="10" />
    <vehicle id="right_227" type="car" route="right" depart="293" departSpeed="10" />
    <vehicle id="right-up_228" type="car" route="right-up" depart="295" departSpeed="10" />
    <vehicle id="down_229" type="car" route="down" depart="297" departSpeed="10" />
    <vehicle id="up-left_230" type="car" route="up-left" depart="301" departSpeed="10" />
    <vehicle id="left-down_231" type="car" route="left-down" depart="301" departSpeed="10" />
    <vehicle id="left_232" type="car" route="left" depart="304" departSpeed="10" />
    <vehicle id="up_233" type="car" route="up" depart="305" departSpeed="10" />
    <vehicle id="right_234" type="car" route="right" depart="305" departSpeed="10" />
    <vehicle id="down-right_235" type="car" route="down-right" depart="305" departSpeed="10" />
    <vehicle id="left-down_236" type="car" route="left-down" depart="307" departSpeed="10" />
    <vehicle id="right_237" type="car" route="right" depart="308" departSpeed="10" />
    <vehicle id="down_238" type="car" route="down" depart="310" departSpeed="10" />
    <vehicle id="left_239" type="car" route="left" depart="310" departSpeed="10" />
    <vehicle id="down_240" type="car" route="down" depart="312" departSpeed="10" />
    <vehicle id="up_241" type="car" route="up" depart="313" departSpeed="10" />
    <vehicle id="up_242" type="car" route="up" depart="315" departSpeed="10" />
    <vehicle id="down_243" type="car" route="down" depart="317" departSpeed="10" />
    <vehicle id="left-down_244" type="car" route="left-down" depart="318" departSpeed="10" />
    <vehicle id="up_245" type="car" route="up" depart="321" departSpeed="10" />
    <vehicle id="up-left_246" type="car" route="up-left" depart="321" departSpeed="10" />
    <vehicle id="down_247" type="car" route="down" depart="322" departSpeed="10" />
    <vehicle id="right-up_248" type="car" route="right-up" depart="323" departSpeed="10" />
    <vehicle id="right_249" type="car" route="right" depart="326" departSpeed="10" />
    <vehicle id="down_250" type="car" route="down" depart="328" departSpeed="10" />
    <vehicle id="left-down_251" type="car" route="left-down" depart="331" departSpeed="10" />
    <vehicle id="down_252" type="car" route="down" depart="336" departSpeed="10" />
    <vehicle id="down_253" type="car" route="down" depart="338" departSpeed="10" />
    <vehicle id="right_254" type="car" route="right" depart="341" departSpeed="10" />
    <vehicle id="up_255" type="car" route="up" depart="343" departSpeed="10" />
    <vehicle id="down_256" type="car" route="down" depart="344" departSpeed="10" />
    <vehicle id="up-left_257" type="car" route="up-left" depart="345" departSpeed="10" />
    <vehicle id="left_258" type="car" route="left" depart="346" departSpeed="10" />
    <vehicle id="up_259" type="car" route="up" depart="348" departSpeed="10" />
    <vehicle id="up_260" type="car" route="up" depart="348" departSpeed="10" />
    <vehicle id="left_261" type="car" route="left" depart="348" departSpeed="10" />
    <vehicle id="right_262" type="car" route="right" depart="349" departSpeed="10" />
    <vehicle id="up_263" type="car" route="up" depart="349" departSpeed="10" />
    <vehicle id="left_264" type="car" route="left" depart="351" departSpeed="10" />
    <vehicle id="down_265" type="car" route="down" depart="351" departSpeed="10" />
    <vehicle id="right_266" type="car" route="right" depart="352" departSpeed="10" />
    <vehicle id="up-left_267" type="car" route="up-left" depart="352" departSpeed="10" />
    <vehicle id="down_268" type="car" route="down" depart="353" departSpeed="10" />
    <vehicle id="left_269" type="car" route="left" depart="353" departSpeed="10" />
    <vehicle id="left-down_270" type="car" route="left-down" depart="353" departSpeed="10" />
    <vehicle id="left_271" type="car" route="left" depart="355" departSpeed="10" />
    <vehicle id="right_272" type="car" route="right" depart="357" departSpeed="10" />
    <vehicle id="right_273" type="car" route="right" depart="358" departSpeed="10" />
    <vehicle id="down-right_274" type="car" route="down-right" depart="359" departSpeed="10" />
    <vehicle id="left_275" type="car" route="left" depart="359" departSpeed="10" />
    <vehicle id="left_276" type="car" route="left" depart="360" departSpeed="10" />
    <vehicle id="right-up_277" type="car" route="right-up" depart="360" departSpeed="10" />
    <vehicle id="right_278" type="car" route="right" depart="361" departSpeed="10" />
    <vehicle id="down_279" type="car" route="down" depart="362" departSpeed="10" />
    <vehicle id="down-right_280" type="car" route="down-right" depart="365" departSpeed="10" />
    <vehicle id="right_281" type="car" route="right" depart="367" departSpeed="10" />
    <vehicle id="right_282" type="car" route="right" depart="367" departSpeed="10" />
    <vehicle id="left_283" type="car" route="left" depart="371" departSpeed="10" />
    <vehicle id="down_284" type="car" route="down" depart="371" departSpeed="10" />
    <vehicle id="up-left_285" type="car" route="up-left" depart="372" departSpeed="10" />
    <vehicle id="left_286" type="car" route="left" depart="372" departSpeed="10" />
    <vehicle id="left-down_287" type="car" route="left-down" depart="372" departSpeed="10" />
    <vehicle id="down-right_288" type="car" route="down-right" depart="373" departSpeed="10" />
    <vehicle id="right-up_289" type="car" route="right-up" depart="375" departSpeed="10" />
    <vehicle id="down_290" type="car" route="down" depart="375" departSpeed="10" />
    <vehicle id="left_291" type="car" route="left" depart="375" departSpeed="10" />
    <vehicle id="down_292" type="car" route="down" depart="377" departSpeed="10" />
    <vehicle id="right_293" type="car" route="right" depart="377" departSpeed="10" />
    <vehicle id="down_294" type="car" route="down" depart="378" departSpeed="10" />
    <vehicle id="right_295" type="car" route="right" depart="379" departSpeed="10" />
    <vehicle id="left_296" type="car" route="left" depart="380" departSpeed="10" />
    <vehicle id="up_297" type="car" route="up" depart="380" departSpeed="10" />
    <vehicle id="up_298" type="car" route="up" depart="380" departSpeed="10" />
    <vehicle id="up_299" type="car" route="up" depart="380" departSpeed="10" />
    <vehicle id="right-up_300" type="car" route="right-up" depart="381" departSpeed="10" />
    <vehicle id="down_301" type="car" route="down" depart="382" departSpeed="10" />
    <vehicle id="down_302" type="car" route="down" depart="382" departSpeed="10" />
    <vehicle id="right_303" type="car" route="right" depart="383" departSpeed="10" />
    <vehicle id="right_304" type="car" route="right" depart="385" departSpeed="10" />
    <vehicle id="right_305" type="car" route="right" depart="385" departSpeed="10" />
    <vehicle id="down_306" type="car" route="down" depart="385" departSpeed="10" />
    <vehicle id="right_307" type="car" route="right" depart="387" departSpeed="10" />
    <vehicle id="down_308" type="car" route="down" depart="388" departSpeed="10" />
    <vehicle id="down_309" type="car" route="down" depart="389" departSpeed="10" />
    <vehicle id="up-left_310" type="car" route="up-left" depart="390" departSpeed="10" />
    <vehicle id="left-down_311" type="car" route="left-down" depart="390" departSpeed="10" />
    <vehicle id="up_312" type="car" route="up" depart="391" departSpeed="10" />
    <vehicle id="up_313" type="car" route="up" depart="391" departSpeed="10" />
    <vehicle id="left_314" type="car" route="left" depart="393" departSpeed="10" />
    <vehicle id="up_315" type="car" route="up" depart="396" departSpeed="10" />
    <vehicle id="right_316" type="car" route="right" depart="396" departSpeed="10" />
    <vehicle id="up-left_317" type="car" route="up-left" depart="397" departSpeed="10" />
    <vehicle id="down-right_318" type="car" route="down-right" depart="397" departSpeed="10" />
    <vehicle id="up_319" type="car" route="up" depart="398" departSpeed="10" />
    <vehicle id="left_320" type="car" route="left" depart="398" departSpeed="10" />
    <vehicle id="left_321" type="car" route="left" depart="400" departSpeed="10" />
    <vehicle id="right_322" type="car" route="right" depart="401" departSpeed="10" />
    <vehicle id="left_323" type="car" route="left" depart="402" departSpeed="10" />
    <vehicle id="down-right_324" type="car" route="down-right" depart="403" departSpeed="10" />
    <vehicle id="left-down_325" type="car" route="left-down" depart="403" departSpeed="10" />
    <vehicle id="right_326" type="car" route="right" depart="405" departSpeed="10" />
    <vehicle id="down_327" type="car" route="down" depart="406" departSpeed="10" />
    <vehicle id="left_328" type="car" route="left" depart="406" departSpeed="10" />
    <vehicle id="left_329" type="car" route="left" depart="406" departSpeed="10" />
    <vehicle id="right-up_330" type="car" route="right-up" depart="406" departSpeed="10" />
    <vehicle id="left_331" type="car" route="left" depart="407" departSpeed="10" />
    <vehicle id="right_332" type="car" route="right" depart="408" departSpeed="10" />
    <vehicle id="right-up_333" type="car" route="right-up" depart="410" departSpeed="10" />
    <vehicle id="right-up_334" type="car" route="right-up" depart="413" departSpeed="10" />
    <vehicle id="up_335" type="car" route="up" depart="413" departSpeed="10" />
    <vehicle id="down_336" type="car" route="down" depart="413" departSpeed="10" />
    <vehicle id="up_337" type="car" route="up" depart="416" departSpeed="10" />
    <vehicle id="up-left_338" type="car" route="up-left" depart="418" departSpeed="10" />
    <vehicle id="right_339" type="car" route="right" depart="420" departSpeed="10" />
    <vehicle id="down-right_340" type="car" route="down-right" depart="420" departSpeed="10" />
    <vehicle id="right_341" type="car" route="right" depart="420" departSpeed="10" />
    <vehicle id="down_342" type="car" route="down" depart="422" departSpeed="10" />