<routes>
  <vType id="car" accel="0.8" decel="4.5" sigma="0.5" length="5" minGap="2.5" maxSpeed="25" guiShape="passenger" />
  <route id="right" edges="E0 E1" />
  <route id="left" edges="-E1 -E0" />
  <route id="down" edges="E2 E3" />
  <route id="up" edges="-E3 -E2" />
  <route id="right-up" edges="E0 -E2" />
  <route id="down-right" edges="E2 E1" />
  <route id="left-down" edges="-E1 E3" />
  <route id="up-left" edges="-E3 -E0" />
  <vehicle type="car" departSpeed="10" depart="1" id="right_0" route="left-down" />
  <vehicle type="car" departSpeed="10" depart="1" id="right_1" route="left-down" />
  <vehicle type="car" departSpeed="10" depart="2" id="right_2" route="down-right" />
  <vehicle type="car" departSpeed="10" depart="2" id="down_3" route="down" />
  <vehicle type="car" departSpeed="10" depart="7" id="left_4" route="left" />
  <vehicle type="car" departSpeed="10" depart="10" id="right_5" route="down-right" />
  <vehicle type="car" departSpeed="10" depart="12" id="right_6" route="left-down" />
  <vehicle type="car" departSpeed="10" depart="13" id="right_7" route="right-up" />
  <vehicle type="car" departSpeed="10" depart="14" id="right_8" route="up-left" />
  <vehicle type="car" departSpeed="10" depart="14" id="right_9" route="up-left" />
  <vehicle type="car" departSpeed="10" depart="16" id="up_10" route="up" />
  <vehicle type="car" departSpeed="10" depart="18" id="right_11" route="up-left" />
  <vehicle type="car" departSpeed="10" depart="20" id="up_12" route="up" />
  <vehicle type="car" departSpeed="10" depart="20" id="up_13" route="up" />
  <vehicle type="car" departSpeed="10" depart="20" id="right_14" route="up-left" />
  <vehicle type="car" departSpeed="10" depart="20" id="right_15" route="right" />
  <vehicle type="car" departSpeed="10" depart="22" id="up_16" route="up" />
  <vehicle type="car" departSpeed="10" depart="32" id="down_17" route="down" />
  <vehicle type="car" departSpeed="10" depart="32" id="right_18" route="left-down" />
  <vehicle type="car" departSpeed="10" depart="33" id="right_19" route="left-down" />
  <vehicle type="car" departSpeed="10" depart="36" id="right_20" route="right" />
  <vehicle type="car" departSpeed="10" depart="36" id="left_21" route="left" />
  <vehicle type="car" departSpeed="10" depart="37" id="left_22" route="left" />
  <vehicle type="car" departSpeed="10" depart="39" id="left_23" route="left" />
  <vehicle type="car" departSpeed="10" depart="41" id="down_24" route="down" />
  <vehicle type="car" departSpeed="10" depart="43" id="right_25" route="right-up" />
  <vehicle type="car" departSpeed="10" depart="47" id="up_26" route="up" />
  <vehicle type="car" departSpeed="10" depart="47" id="down_27" route="down" />
  <vehicle type="car" departSpeed="10" depart="47" id="down_28" route="down" />
  <vehicle type="car" departSpeed="10" depart="50" id="right_29" route="right" />
  <vehicle type="car" departSpeed="10" depart="51" id="right_30" route="right" />
  <vehicle type="car" departSpeed="10" depart="51" id="right_31" route="right" />
  <vehicle type="car" departSpeed="10" depart="54" id="right_32" route="right" />
  <vehicle type="car" departSpeed="10" depart="59" id="left_33" route="left" />
  <vehicle type="car" departSpeed="10" depart="59" id="down_34" route="down" />
  <vehicle type="car" departSpeed="10" depart="63" id="down_35" route="down" />
  <vehicle type="car" departSpeed="10" depart="64" id="left_36" route="left" />
  <vehicle type="car" departSpeed="10" depart="67" id="down_37" route="down" />
  <vehicle type="car" departSpeed="10" depart="68" id="up_38" route="up" />
  <vehicle type="car" departSpeed="10" depart="69" id="up_39" route="up" />
  <vehicle type="car" departSpeed="10" depart="70" id="left_40" route="left" />
  <vehicle type="car" departSpeed="10" depart="73" id="up_41" route="up" />
  <vehicle type="car" departSpeed="10" depart="77" id="down_42" route="down" />
  <vehicle type="car" departSpeed="10" depart="77" id="up_43" route="up" />
  <vehicle type="car" departSpeed="10" depart="78" id="right_44" route="up-left" />
  <vehicle type="car" departSpeed="10" depart="79" id="left_45" route="left" />
  <vehicle type="car" departSpeed="10" depart="79" id="left_46" route="left" />
  <vehicle type="car" departSpeed="10" depart="80" id="up_47" route="up" />
  <vehicle type="car" departSpeed="10" depart="83" id="right_48" route="left-down" />
  <vehicle type="car" departSpeed="10" depart="83" id="down_49" route="down" />
  <vehicle type="car" departSpeed="10" depart="85" id="right_50" route="right" />
  <vehicle type="car" departSpeed="10" depart="88" id="up_51" route="up" />
  <vehicle type="car" departSpeed="10" depart="89" id="right_52" route="left-down" />
  <vehicle type="car" departSpeed="10" depart="89" id="down_53" route="down" />
  <vehicle type="car" departSpeed="10" depart="91" id="left_54" route="left" />
  <vehicle type="car" departSpeed="10" depart="94" id="up_55" route="up" />
  <vehicle type="car" departSpeed="10" depart="95" id="right_56" route="right-up" />
  <vehicle type="car" departSpeed="10" depart="97" id="up_57" route="up" />
  <vehicle type="car" departSpeed="10" depart="97" id="right_58" route="up-left" />
  <vehicle type="car" departSpeed="10" depart="99" id="up_59" route="up" />
  <vehicle type="car" departSpeed="10" depart="102" id="right_60" route="right-up" />
  <vehicle type="car" departSpeed="10" depart="104" id="right_61" route="left-down" />
  <vehicle type="car" departSpeed="10" depart="104" id="down_62" route="down" />
  <vehicle type="car" departSpeed="10" depart="108" id="left_63" route="left" />
  <vehicle type="car" departSpeed="10" depart="110" id="right_64" route="right" />
  <vehicle type="car" departSpeed="10" depart="110" id="right_65" route="up-left" />
  <vehicle type="car" departSpeed="10" depart="110" id="up_66" route="up" />
  <vehicle type="car" departSpeed="10" depart="110" id="right_67" route="left-down" />
  <vehicle type="car" departSpeed="10" depart="114" id="left_68" route="left" />
  <vehicle type="car" departSpeed="10" depart="115" id="right_69" route="left-down" />
  <vehicle type="car" departSpeed="10" depart="115" id="up_70" route="up" />
  <vehicle type="car" departSpeed="10" depart="115" id="up_71" route="up" />
  <vehicle type="car" departSpeed="10" depart="116" id="up_72" route="up" />
  <vehicle type="car" departSpeed="10" depart="117" id="left_73" route="left" />
  <vehicle type="car" departSpeed="10" depart="118" id="right_74" route="right" />
  <vehicle type="car" departSpeed="10" depart="118" id="left_75" route="left" />
  <vehicle type="car" departSpeed="10" depart="118" id="left_76" route="left" />
  <vehicle type="car" departSpeed="10" depart="123" id="left_77" route="left" />
  <vehicle type="car" departSpeed="10" depart="125" id="right_78" route="right" />
  <vehicle type="car" departSpeed="10" depart="126" id="right_79" route="right" />
  <vehicle type="car" departSpeed="10" depart="127" id="right_80" route="up-left" />
  <vehicle type="car" departSpeed="10" depart="134" id="right_81" route="down-right" />
  <vehicle type="car" departSpeed="10" depart="135" id="right_82" route="down-right" />
  <vehicle type="car" departSpeed="10" depart="136" id="up_83" route="up" />
  <vehicle type="car" departSpeed="10" depart="139" id="right_84" route="right" />
  <vehicle type="car" departSpeed="10" depart="140" id="down_85" route="down" />
  <vehicle type="car" departSpeed="10" depart="142" id="up_86" route="up" />
  <vehicle type="car" departSpeed="10" depart="142" id="right_87" route="right-up" />
  <vehicle type="car" departSpeed="10" depart="143" id="down_88" route="down" />
  <vehicle type="car" departSpeed="10" depart="143" id="right_89" route="right-up" />
  <vehicle type="car" departSpeed="10" depart="148" id="down_90" route="down" />
  <vehicle type="car" departSpeed="10" depart="149" id="left_91" route="left" />
  <vehicle type="car" departSpeed="10" depart="151" id="right_92" route="right" />
  <vehicle type="car" departSpeed="10" depart="151" id="up_93" route="up" />
  <vehicle type="car" departSpeed="10" depart="153" id="left_94" route="left" />
  <vehicle type="car" departSpeed="10" depart="153" id="left_95" route="left" />
  <vehicle type="car" departSpeed="10" depart="153" id="right_96" route="right" />
  <vehicle type="car" departSpeed="10" depart="155" id="right_97" route="right" />
  <vehicle type="car" departSpeed="10" depart="155" id="up_98" route="up" />
  <vehicle type="car" departSpeed="10" depart="160" id="left_99" route="left" />
  <vehicle type="car" departSpeed="10" depart="160" id="left_100" route="left" />
  <vehicle type="car" departSpeed="10" depart="161" id="right_101" route="up-left" />
  <vehicle type="car" departSpeed="10" depart="163" id="right_102" route="right" />
  <vehicle type="car" departSpeed="10" depart="163" id="down_103" route="down" />
  <vehicle type="car" departSpeed="10" depart="165" id="left_104" route="left" />
  <vehicle type="car" departSpeed="10" depart="166" id="down_105" route="down" />
  <vehicle type="car" departSpeed="10" depart="166" id="right_106" route="right-up" />
  <vehicle type="car" departSpeed="10" depart="166" id="right_107" route="right-up" />
  <vehicle type="car" departSpeed="10" depart="167" id="right_108" route="left-down" />
  <vehicle type="car" departSpeed="10" depart="167" id="right_109" route="right" />
  <vehicle type="car" departSpeed="10" depart="169" id="right_110" route="right-up" />
  <vehicle type="car" departSpeed="10" depart="169" id="left_111" route="left" />
  <vehicle type="car" departSpeed="10" depart="169" id="down_112" route="down" />
  <vehicle type="car" departSpeed="10" depart="169" id="down_113" route="down" />
  <vehicle type="car" departSpeed="10" depart="170" id="down_114" route="down" />
  <vehicle type="car" departSpeed="10" depart="171" id="up_115" route="up" />
  <vehicle type="car" departSpeed="10" depart="171" id="left_116" route="left" />
  <vehicle type="car" departSpeed="10" depart="171" id="right_117" route="right" />
  <vehicle type="car" departSpeed="10" depart="172" id="up_118" route="up" />
  <vehicle type="car" departSpeed="10" depart="173" id="right_119" route="right-up" />
  <vehicle type="car" departSpeed="10" depart="173" id="right_120" route="right" />
  <vehicle type="car" departSpeed="10" depart="175" id="right_121" route="right-up" />
  <vehicle type="car" departSpeed="10" depart="176" id="down_122" route="down" />
  <vehicle type="car" departSpeed="10" depart="178" id="up_123" route="up" />
  <vehicle type="car" departSpeed="10" depart="178" id="up_124" route="up" />
  <vehicle type="car" departSpeed="10" depart="178" id="right_125" route="up-left" />
  <vehicle type="car" departSpeed="10" depart="179" id="up_126" route="up" />
  <vehicle type="car" departSpeed="10" depart="182" id="right_127" route="right" />
  <vehicle type="car" departSpeed="10" depart="183" id="right_128" route="right" />
  <vehicle type="car" departSpeed="10" depart="183" id="left_129" route="left" />
  <vehicle type="car" departSpeed="10" depart="184" id="down_130" route="down" />
  <vehicle type="car" departSpeed="10" depart="184" id="right_131" route="right" />
  <vehicle type="car" departSpeed="10" depart="187" id="left_132" route="left" />
  <vehicle type="car" departSpeed="10" depart="187" id="left_133" route="left" />
  <vehicle type="car" departSpeed="10" depart="188" id="right_134" route="right" />
  <vehicle type="car" departSpeed="10" depart="188" id="right_135" route="left-down" />
  <vehicle type="car" departSpeed="10" depart="189" id="right_136" route="right" />
  <vehicle type="car" departSpeed="10" depart="189" id="left_137" route="left" />
  <vehicle type="car" departSpeed="10" depart="189" id="right_138" route="down-right" />
  <vehicle type="car" departSpeed="10" depart="189" id="right_139" route="right-up" />
  <vehicle type="car" departSpeed="10" depart="190" id="up_140" route="up" />
  <vehicle type="car" departSpeed="10" depart="190" id="right_141" route="left-down" />
  <vehicle type="car" departSpeed="10" depart="192" id="left_142" route="left" />
  <vehicle type="car" departSpeed="10" depart="194" id="right_143" route="right" />
  <vehicle type="car" departSpeed="10" depart="194" id="right_144" route="left-down" />
  <vehicle type="car" departSpeed="10" depart="196" id="up_145" route="up" />
  <vehicle type="car" departSpeed="10" depart="196" id="right_146" route="down-right" />
  <vehicle type="car" departSpeed="10" depart="197" id="left_147" route="left" />
  <vehicle type="car" departSpeed="10" depart="198" id="up_148" route="up" />
  <vehicle type="car" departSpeed="10" depart="199" id="right_149" route="right" />
  <vehicle type="car" departSpeed="10" depart="200" id="down_150" route="down" />
  <vehicle type="car" departSpeed="10" depart="201" id="right_151" route="down-right" />
  <vehicle type="car" departSpeed="10" depart="202" id="up_152" route="up" />
  <vehicle type="car" departSpeed="10" depart="204" id="left_153" route="left" />
  <vehicle type="car" departSpeed="10" depart="206" id="left_154" route="left" />
  <vehicle type="car" departSpeed="10" depart="207" id="right_155" route="right-up" />
  <vehicle type="car" departSpeed="10" depart="207" id="right_156" route="up-left" />
  <vehicle type="car" departSpeed="10" depart="207" id="down_157" route="down" />
  <vehicle type="car" departSpeed="10" depart="210" id="down_158" route="down" />
  <vehicle type="car" departSpeed="10" depart="214" id="left_159" route="left" />
  <vehicle type="car" departSpeed="10" depart="215" id="right_160" route="right" />
  <vehicle type="car" departSpeed="10" depart="217" id="down_161" route="down" />
  <vehicle type="car" departSpeed="10" depart="217" id="left_162" route="left" />
  <vehicle type="car" departSpeed="10" depart="218" id="right_163" route="left-down" />
  <vehicle type="car" departSpeed="10" depart="220" id="right_164" route="right" />
  <vehicle type="car" departSpeed="10" depart="220" id="down_165" route="down" />
  <vehicle type="car" departSpeed="10" depart="221" id="right_166" route="right" />
  <vehicle type="car" departSpeed="10" depart="223" id="right_167" route="right" />
  <vehicle type="car" departSpeed="10" depart="223" id="up_168" route="up" />
  <vehicle type="car" departSpeed="10" depart="224" id="down_169" route="down" />
  <vehicle type="car" departSpeed="10" depart="226" id="right_170" route="right" />
  <vehicle type="car" departSpeed="10" depart="227" id="up_171" route="up" />
  <vehicle type="car" departSpeed="10" depart="228" id="right_172" route="right" />
  <vehicle type="car" departSpeed="10" depart="230" id="right_173" route="down-right" />
  <vehicle type="car" departSpeed="10" depart="236" id="up_174" route="up" />
  <vehicle type="car" departSpeed="10" depart="237" id="left_175" route="left" />
  <vehicle type="car" departSpeed="10" depart="237" id="right_176" route="right" />
  <vehicle type="car" departSpeed="10" depart="237" id="down_177" route="down" />
  <vehicle type="car" departSpeed="10" depart="238" id="left_178" route="left" />
  <vehicle type="car" departSpeed="10" depart="238" id="right_179" route="right" />
  <vehicle type="car" departSpeed="10" depart="242" id="right_180" route="down-right" />
  <vehicle type="car" departSpeed="10" depart="243" id="left_181" route="left" />
  <vehicle type="car" departSpeed="10" depart="244" id="right_182" route="down-right" />
  <vehicle type="car" departSpeed="10" depart="245" id="down_183" route="down" />
  <vehicle type="car" departSpeed="10" depart="247" id="right_184" route="right" />
  <vehicle type="car" departSpeed="10" depart="249" id="left_185" route="left" />
  <vehicle type="car" departSpeed="10" depart="250" id="right_186" route="right" />
  <vehicle type="car" departSpeed="10" depart="250" id="right_187" route="left-down" />
  <vehicle type="car" departSpeed="10" depart="250" id="right_188" route="up-left" />
  <vehicle type="car" departSpeed="10" depart="251" id="left_189" route="left" />
  <vehicle type="car" departSpeed="10" depart="252" id="right_190" route="right-up" />
  <vehicle type="car" departSpeed="10" depart="255" id="down_191" route="down" />
  <vehicle type="car" departSpeed="10" depart="255" id="left_192" route="left" />
  <vehicle type="car" departSpeed="10" depart="256" id="left_193" route="left" />
  <vehicle type="car" departSpeed="10" depart="256" id="right_194" route="right" />
  <vehicle type="car" departSpeed="10" depart="259" id="right_195" route="left-down" />
  <vehicle type="car" departSpeed="10" depart="261" id="right_196" route="left-down" />
  <vehicle type="car" departSpeed="10" depart="261" id="right_197" route="right" />
  <vehicle type="car" departSpeed="10" depart="262" id="right_198" route="right-up" />
  <vehicle type="car" departSpeed="10" depart="262" id="left_199" route="left" />
  <vehicle type="car" departSpeed="10" depart="263" id="down_200" route="down" />
  <vehicle type="car" departSpeed="10" depart="264" id="right_201" route="right-up" />
  <vehicle type="car" departSpeed="10" depart="266" id="right_202" route="right" />
  <vehicle type="car" departSpeed="10" depart="267" id="right_203" route="right" />
  <vehicle type="car" departSpeed="10" depart="268" id="left_204" route="left" />
  <vehicle type="car" departSpeed="10" depart="268" id="up_205" route="up" />
  <vehicle type="car" departSpeed="10" depart="270" id="down_206" route="down" />
  <vehicle type="car" departSpeed="10" depart="270" id="down_207" route="down" />
  <vehicle type="car" departSpeed="10" depart="271" id="left_208" route="left" />
  <vehicle type="car" departSpeed="10" depart="272" id="right_209" route="up-left" />
  <vehicle type="car" departSpeed="10" depart="273" id="down_210" route="down" />
  <vehicle type="car" departSpeed="10" depart="273" id="right_211" route="left-down" />
  <vehicle type="car" departSpeed="10" depart="273" id="up_212" route="up" />
  <vehicle type="car" departSpeed="10" depart="274" id="right_213" route="down-right" />
  <vehicle type="car" departSpeed="10" depart="274" id="down_214" route="down" />
  <vehicle type="car" departSpeed="10" depart="275" id="left_215" route="left" />
  <vehicle type="car" departSpeed="10" depart="276" id="right_216" route="right-up" />
  <vehicle type="car" departSpeed="10" depart="278" id="down_217" route="down" />
  <vehicle type="car" departSpeed="10" depart="278" id="down_218" route="down" />
  <vehicle type="car" departSpeed="10" depart="279" id="up_219" route="up" />
  <vehicle type="car" departSpeed="10" depart="281" id="right_220" route="left-down" />
  <vehicle type="car" departSpeed="10" depart="285" id="right_221" route="down-right" />
  <vehicle type="car" departSpeed="10" depart="286" id="right_222" route="right" />
  <vehicle type="car" departSpeed="10" depart="287" id="right_223" route="left-down" />
  <vehicle type="car" departSpeed="10" depart="287" id="right_224" route="right" />
  <vehicle type="car" departSpeed="10" depart="290" id="right_225" route="right" />
  <vehicle type="car" departSpeed="10" depart="292" id="right_226" route="down-right" />
  <vehicle type="car" departSpeed="10" depart="293" id="right_227" route="right" />
  <vehicle type="car" departSpeed="10" depart="295" id="right_228" route="right-up" />
  <vehicle type="car" departSpeed="10" depart="297" id="down_229" route="down" />
  <vehicle type="car" departSpeed="10" depart="301" id="right_230" route="up-left" />
  <vehicle type="car" departSpeed="10" depart="301" id="right_231" route="left-down" />
  <vehicle type="car" departSpeed="10" depart="304" id="left_232" route="left" />
  <vehicle type="car" departSpeed="10" depart="305" id="up_233" route="up" />
  <vehicle type="car" departSpeed="10" depart="305" id="right_234" route="right" />
  <vehicle type="car" departSpeed="10" depart="305" id="right_235" route="down-right" />
  <vehicle type="car" departSpeed="10" depart="307" id="right_236" route="left-down" />
  <vehicle type="car" departSpeed="10" depart="308" id="right_237" route="right" />
  <vehicle type="car" departSpeed="10" depart="310" id="down_238" route="down" />
  <vehicle type="car" departSpeed="10" depart="310" id="left_239" route="left" />
  <vehicle type="car" departSpeed="10" depart="312" id="down_240" route="down" />
  <vehicle type="car" departSpeed="10" depart="313" id="up_241" route="up" />
  <vehicle type="car" departSpeed="10" depart="315" id="up_242" route="up" />
  <vehicle type="car" departSpeed="10" depart="317" id="down_243" route="down" />
  <vehicle type="car" departSpeed="10" depart="318" id="right_244" route="left-down" />
  <vehicle type="car" departSpeed="10" depart="321" id="up_245" route="up" />
  <vehicle type="car" departSpeed="10" depart="321" id="right_246" route="up-left" />
  <vehicle type="car" departSpeed="10" depart="322" id="down_247" route="down" />
  <vehicle type="car" departSpeed="10" depart="323" id="right_248" route="right-up" />
  <vehicle type="car" departSpeed="10" depart="326" id="right_249" route="right" />
  <vehicle type="car" departSpeed="10" depart="328" id="down_250" route="down" />
  <vehicle type="car" departSpeed="10" depart="331" id="right_251" route="left-down" />
  <vehicle type="car" departSpeed="10" depart="336" id="down_252" route="down" />
  <vehicle type="car" departSpeed="10" depart="338" id="down_253" route="down" />
  <vehicle type="car" departSpeed="10" depart="341" id="right_254" route="right" />
  <vehicle type="car" departSpeed="10" depart="343" id="up_255" route="up" />
  <vehicle type="car" departSpeed="10" depart="344" id="down_256" route="down" />
  <vehicle type="car" departSpeed="10" depart="345" id="right_257" route="up-left" />
  <vehicle type="car" departSpeed="10" depart="346" id="left_258" route="left" />
  <vehicle type="car" departSpeed="10" depart="348" id="up_259" route="up" />
  <vehicle type="car" departSpeed="10" depart="348" id="up_260" route="up" />
  <vehicle type="car" departSpeed="10" depart="348" id="left_261" route="left" />
  <vehicle type="car" departSpeed="10" depart="349" id="right_262" route="right" />
  <vehicle type="car" departSpeed="10" depart="349" id="up_263" route="up" />
  <vehicle type="car" departSpeed="10" depart="351" id="left_264" route="left" />
  <vehicle type="car" departSpeed="10" depart="351" id="down_265" route="down" />
  <vehicle type="car" departSpeed="10" depart="352" id="right_266" route="right" />
  <vehicle type="car" departSpeed="10" depart="352" id="right_267" route="up-left" />
  <vehicle type="car" departSpeed="10" depart="353" id="down_268" route="down" />
  <vehicle type="car" departSpeed="10" depart="353" id="left_269" route="left" />
  <vehicle type="car" departSpeed="10" depart="353" id="right_270" route="left-down" />
  <vehicle type="car" departSpeed="10" depart="355" id="left_271" route="left" />
  <vehicle type="car" departSpeed="10" depart="357" id="right_272" route="right" />
  <vehicle type="car" departSpeed="10" depart="358" id="right_273" route="right" />
  <vehicle type="car" departSpeed="10" depart="359" id="right_274" route="down-right" />
  <vehicle type="car" departSpeed="10" depart="359" id="left_275" route="left" />
  <vehicle type="car" departSpeed="10" depart="360" id="left_276" route="left" />
  <vehicle type="car" departSpeed="10" depart="360" id="right_277" route="right-up" />
  <vehicle type="car" departSpeed="10" depart="361" id="right_278" route="right" />
  <vehicle type="car" departSpeed="10" depart="362" id="down_279" route="down" />
  <vehicle type="car" departSpeed="10" depart="365" id="right_280" route="down-right" />
  <vehicle type="car" departSpeed="10" depart="367" id="right_281" route="right" />
  <vehicle type="car" departSpeed="10" depart="367" id="right_282" route="right" />
  <vehicle type="car" departSpeed="10" depart="371" id="left_283" route="left" />
  <vehicle type="car" departSpeed="10" depart="371" id="down_284" route="down" />
  <vehicle type="car" departSpeed="10" depart="372" id="right_285" route="up-left" />
  <vehicle type="car" departSpeed="10" depart="372" id="left_286" route="left" />
  <vehicle type="car" departSpeed="10" depart="372" id="right_287" route="left-down" />
  <vehicle type="car" departSpeed="10" depart="373" id="right_288" route="down-right" />
  <vehicle type="car" departSpeed="10" depart="375" id="right_289" route="right-up" />
  <vehicle type="car" departSpeed="10" depart="375" id="down_290" route="down" />
  <vehicle type="car" departSpeed="10" depart="375" id="left_291" route="left" />
  <vehicle type="car" departSpeed="10" depart="377" id="down_292" route="down" />
  <vehicle type="car" departSpeed="10" depart="377" id="right_293" route="right" />
  <vehicle type="car" departSpeed="10" depart="378" id="down_294" route="down" />
  <vehicle type="car" departSpeed="10" depart="379" id="right_295" route="right" />
  <vehicle type="car" departSpeed="10" depart="380" id="left_296" route="left" />
  <vehicle type="car" departSpeed="10" depart="380" id="up_297" route="up" />
  <vehicle type="car" departSpeed="10" depart="380" id="up_298" route="up" />
  <vehicle type="car" departSpeed="10" depart="380" id="up_299" route="up" />
  <vehicle type="car" departSpeed="10" depart="381" id="right_300" route="right-up" />
  <vehicle type="car" departSpeed="10" depart="382" id="down_301" route="down" />
  <vehicle type="car" departSpeed="10" depart="382" id="down_302" route="down" />
  <vehicle type="car" departSpeed="10" depart="383" id="right_303" route="right" />
  <vehicle type="car" departSpeed="10" depart="385" id="right_304" route="right" />
  <vehicle type="car" departSpeed="10" depart="385" id="right_305" route="right" />
  <vehicle type="car" departSpeed="10" depart="385" id="down_306" route="down" />
  <vehicle type="car" departSpeed="10" depart="387" id="right_307" route="right" />
  <vehicle type="car" departSpeed="10" depart="388" id="down_308" route="down" />
  <vehicle type="car" departSpeed="10" depart="389" id="down_309" route="down" />
  <vehicle type="car" departSpeed="10" depart="390" id="right_310" route="up-left" />
  <vehicle type="car" departSpeed="10" depart="390" id="right_311" route="left-down" />
  <vehicle type="car" departSpeed="10" depart="391" id="up_312" route="up" />
  <vehicle type="car" departSpeed="10" depart="391" id="up_313" route="up" />
  <vehicle type="car" departSpeed="10" depart="393" id="left_314" route="left" />
  <vehicle type="car" departSpeed="10" depart="396" id="up_315" route="up" />
  <vehicle type="car" departSpeed="10" depart="396" id="right_316" route="right" />
  <vehicle type="car" departSpeed="10" depart="397" id="right_317" route="up-left" />
  <vehicle type="car" departSpeed="10" depart="397" id="right_318" route="down-right" />
  <vehicle type="car" departSpeed="10" depart="398" id="up_319" route="up" />
  <vehicle type="car" departSpeed="10" depart="398" id="left_320" route="left" />
  <vehicle type="car" departSpeed="10" depart="400" id="left_321" route="left" />
  <vehicle type="car" departSpeed="10" depart="401" id="right_322" route="right" />
  <vehicle type="car" departSpeed="10" depart="402" id="left_323" route="left" />
  <vehicle type="car" departSpeed="10" depart="403" id="right_324" route="down-right" />
  <vehicle type="car" departSpeed="10" depart="403" id="right_325" route="left-down" />
  <vehicle type="car" departSpeed="10" depart="405" id="right_326" route="right" />
  <vehicle type="car" departSpeed="10" depart="406" id="down_327" route="down" />
  <vehicle type="car" departSpeed="10" depart="406" id="left_328" route="left" />
  <vehicle type="car" departSpeed="10" depart="406" id="left_329" route="left" />
  <vehicle type="car" departSpeed="10" depart="406" id="right_330" route="right-up" />
  <vehicle type="car" departSpeed="10" depart="407" id="left_331" route="left" />
  <vehicle type="car" departSpeed="10" depart="408" id="right_332" route="right" />
  <vehicle type="car" departSpeed="10" depart="410" id="right_333" route="right-up" />
  <vehicle type="car" departSpeed="10" depart="413" id="right_334" route="right-up" />
  <vehicle type="car" departSpeed="10" depart="413" id="up_335" route="up" />
  <vehicle type="car" departSpeed="10" depart="413" id="down_336" route="down" />
  <vehicle type="car" departSpeed="10" depart="416" id="up_337" route="up" />
  <vehicle type="car" departSpeed="10" depart="418" id="right_338" route="up-left" />
  <vehicle type="car" departSpeed="10" depart="420" id="right_339" route="right" />
  <vehicle type="car" departSpeed="10" depart="420" id="right_340" route="down-right" />
  <vehicle type="car" departSpeed="10" depart="420" id="right_341" route="right" />
  <vehicle type="car" departSpeed="10" depart="422" id="down_342" route="down" />
  <vehicle type="car" departSpeed="10" depart="425" id="right_343" route="right" />
  <vehicle type="car" departSpeed="10" depart="425" id="right_344" route="right" />
  <vehicle type="car" departSpeed="10" depart="426" id="down_345" route="down" />
  <vehicle type="car" departSpeed="10" depart="427" id="down_346" route="down" />
  <vehicle type="car" departSpeed="10" depart="429" id="right_347" route="right" />
  <vehicle type="car" departSpeed="10" depart="429" id="left_348" route="left" />
  <vehicle type="car" departSpeed="10" depart="430" id="up_349" route="up" />
  <vehicle type="car" departSpeed="10" depart="431" id="left_350" route="left" />
  <vehicle type="car" departSpeed="10" depart="431" id="up_351" route="up" />
  <vehicle type="car" departSpeed="10" depart="432" id="right_352" route="right" />
  <vehicle type="car" departSpeed="10" depart="432" id="right_353" route="down-right" />
  <vehicle type="car" departSpeed="10" depart="437" id="up_354" route="up" />
  <vehicle type="car" departSpeed="10" depart="438" id="right_355" route="up-left" />
  <vehicle type="car" departSpeed="10" depart="438" id="down_356" route="down" />