<net xmlns:xsi="http://www.w3.org/2001/XMLSchema-instance" version="1.9" junctionCornerDetail="5" lefthand="true" limitTurnSpeed="5.50" xsi:noNamespaceSchemaLocation="http://sumo.dlr.de/xsd/net_file.xsd">

    <location netOffset="0.00,0.00" convBoundary="0.00,-100.00,200.00,100.00" origBoundary="-10000000000.00,-10000000000.00,10000000000.00,10000000000.00" projParameter="!" />

    <edge id=":J2_0" function="internal">
        <lane id=":J2_0_0" index="0" speed="6.51" length="9.03" shape="98.40,-7.20 98.05,-4.75 97.00,-3.00 95.25,-1.95 92.80,-1.60" />
    </edge>
    <edge id=":J2_1" function="internal">
        <lane id=":J2_1_0" index="0" speed="13.89" length="14.40" shape="98.40,-7.20 98.40,7.20" />
    </edge>
    <edge id=":J2_2" function="internal">
        <lane id=":J2_2_0" index="0" speed="8.00" length="4.07" shape="98.40,-7.20 98.95,-3.35 99.04,-3.20" />
    </edge>
    <edge id=":J2_12" function="internal">
        <lane id=":J2_12_0" index="0" speed="8.00" length="10.13" shape="99.04,-3.20 100.60,-0.60 103.35,1.05 107.20,1.60" />
    </edge>
    <edge id=":J2_3" function="internal">
        <lane id=":J2_3_0" index="0" speed="6.51" length="9.03" shape="107.20,-1.60 104.75,-1.95 103.00,-3.00 101.95,-4.75 101.60,-7.20" />
    </edge>
    <edge id=":J2_4" function="internal">
        <lane id=":J2_4_0" index="0" speed="13.89" length="14.40" shape="107.20,-1.60 92.80,-1.60" />
    </edge>
    <edge id=":J2_5" function="internal">
        <lane id=":J2_5_0" index="0" speed="8.00" length="4.07" shape="107.20,-1.60 103.35,-1.05 103.20,-0.96" />
    </edge>
    <edge id=":J2_13" function="internal">
        <lane id=":J2_13_0" index="0" speed="8.00" length="10.13" shape="103.20,-0.96 100.60,0.60 98.95,3.35 98.40,7.20" />
    </edge>
    <edge id=":J2_6" function="internal">
        <lane id=":J2_6_0" index="0" speed="6.51" length="9.03" shape="101.60,7.20 101.95,4.75 103.00,3.00 104.75,1.95 107.20,1.60" />
    </edge>
    <edge id=":J2_7" function="internal">
        <lane id=":J2_7_0" index="0" speed="13.89" length="14.40" shape="101.60,7.20 101.60,-7.20" />
    </edge>
    <edge id=":J2_8" function="internal">
        <lane id=":J2_8_0" index="0" speed="8.00" length="4.07" shape="101.60,7.20 101.05,3.35 100.96,3.20" />
    </edge>
    <edge id=":J2_14" function="internal">
        <lane id=":J2_14_0" index="0" speed="8.00" length="10.13" shape="100.96,3.20 99.40,0.60 96.65,-1.05 92.80,-1.60" />
    </edge>
    <edge id=":J2_9" function="internal">
        <lane id=":J2_9_0" index="0" speed="6.51" length="9.03" shape="92.80,1.60 95.25,1.95 97.00,3.00 98.05,4.75 98.40,7.20" />
    </edge>
    <edge id=":J2_10" function="internal">
        <lane id=":J2_10_0" index="0" speed="13.89" length="14.40" shape="92.80,1.60 107.20,1.60" />
    </edge>
    <edge id=":J2_11" function="internal">
        <lane id=":J2_11_0" index="0" speed="8.00" length="4.07" shape="92.80,1.60 96.65,1.05 96.80,0.96" />
    </edge>
    <edge id=":J2_15" function="internal">
        <lane id=":J2_15_0" index="0" speed="8.00" length="10.13" shape="96.80,0.96 99.40,-0.60 101.05,-3.35 101.60,-7.20" />
    </edge>

    <edge id="-E0" from="J2" to="J1" priority="-1">
        <lane id="-E0_0" index="0" speed="13.89" length="92.80" shape="92.80,-1.60 0.00,-1.60" />
    </edge>
    <edge id="-E1" from="J3" to="J2" priority="-1">
        <lane id="-E1_0" index="0" speed="13.89" length="92.80" shape="200.00,-1.60 107.20,-1.60" />
    </edge>
    <edge id="-E2" from="J2" to="J4" priority="-1">
        <lane id="-E2_0" index="0" speed="13.89" length="92.80" shape="98.40,7.20 98.40,100.00" />
    </edge>
    <edge id="-E3" from="J5" to="J2" priority="-1">
        <lane id="-E3_0" index="0" speed="13.89" length="92.80" shape="98.40,-100.00 98.40,-7.20" />
    </edge>
    <edge id="E0" from="J1" to="J2" priority="-1">
        <lane id="E0_0" index="0" speed="13.89" length="92.80" shape="0.00,1.60 92.80,1.60" />
    </edge>
    <edge id="E1" from="J2" to="J3" priority="-1">
        <lane id="E1_0" index="0" speed="13.89" length="92.80" shape="107.20,1.60 200.00,1.60" />
    </edge>
    <edge id="E2" from="J4" to="J2" priority="-1">
        <lane id="E2_0" index="0" speed="13.89" length="92.80" shape="101.60,100.00 101.60,7.20" />
    </edge>
    <edge id="E3" from="J2" to="J5" priority="-1">
        <lane id="E3_0" index="0" speed="13.89" length="92.80" shape="101.60,-7.20 101.60,-100.00" />
    </edge>

    <tlLogic id="J2" type="actuated" programID="0" offset="0">
        <phase duration="42" state="GGgrrrGGgrrr" />
        <phase duration="3" state="yyyrrryyyrrr" />
        <phase duration="42" state="rrrGGgrrrGGg" />
        <phase duration="3" state="rrryyyrrryyy" />
    </tlLogic>

    <junction id="J1" type="dead_end" x="0.00" y="0.00" incLanes="-E0_0" intLanes="" shape="0.00,-0.00 0.00,-3.20 0.00,-0.00" />
    <junction id="J2" type="traffic_light" x="100.00" y="0.00" incLanes="-E3_0 -E1_0 E2_0 E0_0" intLanes=":J2_0_0 :J2_1_0 :J2_12_0 :J2_3_0 :J2_4_0 :J2_13_0 :J2_6_0 :J2_7_0 :J2_14_0 :J2_9_0 :J2_10_0 :J2_15_0" shape="96.80,-7.20 103.20,-7.20 103.64,-4.98 104.20,-4.20 104.98,-3.64 105.98,-3.31 107.20,-3.20 107.20,3.20 104.98,3.64 104.20,4.20 103.64,4.98 103.31,5.98 103.20,7.20 96.80,7.20 96.36,4.98 95.80,4.20 95.02,3.64 94.02,3.31 92.80,3.20 92.80,-3.20 95.02,-3.64 95.80,-4.20 96.36,-4.98 96.69,-5.98">
        <request index="0" response="000000000000" foes="000100010000" cont="0" />
        <request index="1" response="100000100000" foes="111100110000" cont="0" />
        <request index="2" response="100111100000" foes="110111110000" cont="1" />
        <request index="3" response="000010000000" foes="100010000000" cont="0" />
        <request index="4" response="000110000111" foes="100110000111" cont="0" />
        <request index="5" response="111110000110" foes="111110000110" cont="1" />
        <request index="6" response="000000000000" foes="010000000100" cont="0" />
        <request index="7" response="100000100000" foes="110000111100" cont="0" />
        <request index="8" response="100000100011" foes="110000110111" cont="1" />
        <request index="9" response="000000000010" foes="000000100010" cont="0" />
        <request index="10" response="000111000110" foes="000111100110" cont="0" />
        <request index="11" response="000110011110" foes="000110111110" cont="1" />
    </junction>
    <junction id="J3" type="dead_end" x="200.00" y="0.00" incLanes="E1_0" intLanes="" shape="200.00,-0.00 200.00,3.20 200.00,-0.00" />
    <junction id="J4" type="dead_end" x="100.00" y="100.00" incLanes="-E2_0" intLanes="" shape="100.00,100.00 96.80,100.00 100.00,100.00" />
    <junction id="J5" type="dead_end" x="100.00" y="-100.00" incLanes="E3_0" intLanes="" shape="100.00,-100.00 103.20,-100.00 100.00,-100.00" />

    <junction id=":J2_12_0" type="internal" x="99.04" y="-3.20" incLanes=":J2_2_0 E2_0" intLanes=":J2_4_0 :J2_5_0 :J2_6_0 :J2_7_0 :J2_10_0 :J2_11_0" />
    <junction id=":J2_13_0" type="internal" x="103.20" y="-0.96" incLanes=":J2_5_0 E0_0" intLanes=":J2_1_0 :J2_2_0 :J2_7_0 :J2_8_0 :J2_9_0 :J2_10_0" />
    <junction id=":J2_14_0" type="internal" x="100.96" y="3.20" incLanes=":J2_8_0 -E3_0" intLanes=":J2_0_0 :J2_1_0 :J2_4_0 :J2_5_0 :J2_10_0 :J2_11_0" />
    <junction id=":J2_15_0" type="internal" x="96.80" y="0.96" incLanes=":J2_11_0 -E1_0" intLanes=":J2_1_0 :J2_2_0 :J2_3_0 :J2_4_0 :J2_7_0 :J2_8_0" />

    <connection from="-E1" to="E3" fromLane="0" toLane="0" via=":J2_3_0" tl="J2" linkIndex="3" dir="l" state="o" />
    <connection from="-E1" to="-E0" fromLane="0" toLane="0" via=":J2_4_0" tl="J2" linkIndex="4" dir="s" state="o" />
    <connection from="-E1" to="-E2" fromLane="0" toLane="0" via=":J2_5_0" tl="J2" linkIndex="5" dir="r" state="o" />
    <connection from="-E3" to="-E0" fromLane="0" toLane="0" via=":J2_0_0" tl="J2" linkIndex="0" dir="l" state="O" />
    <connection from="-E3" to="-E2" fromLane="0" toLane="0" via=":J2_1_0" tl="J2" linkIndex="1" dir="s" state="O" />
    <connection from="-E3" to="E1" fromLane="0" toLane="0" via=":J2_2_0" tl="J2" linkIndex="2" dir="r" state="o" />
    <connection from="E0" to="-E2" fromLane="0" toLane="0" via=":J2_9_0" tl="J2" linkIndex="9" dir="l" state="o" />
    <connection from="E0" to="E1" fromLane="0" toLane="0" via=":J2_10_0" tl="J2" linkIndex="10" dir="s" state="o" />
    <connection from="E0" to="E3" fromLane="0" toLane="0" via=":J2_11_0" tl="J2" linkIndex="11" dir="r" state="o" />
    <connection from="E2" to="E1" fromLane="0" toLane="0" via=":J2_6_0" tl="J2" linkIndex="6" dir="l" state="O" />
    <connection from="E2" to="E3" fromLane="0" toLane="0" via=":J2_7_0" tl="J2" linkIndex="7" dir="s" state="O" />
    <connection from="E2" to="-E0" fromLane="0" toLane="0" via=":J2_8_0" tl="J2" linkIndex="8" dir="r" state="o" />

    <connection from=":J2_0" to="-E0" fromLane="0" toLane="0" dir="l" state="M" />
    <connection from=":J2_1" to="-E2" fromLane="0" toLane="0" dir="s" state="M" />
    <connection from=":J2_2" to="E1" fromLane="0" toLane="0" via=":J2_12_0" dir="r" state="m" />
    <connection from=":J2_12" to="E1" fromLane="0" toLane="0" dir="r" state="M" />
    <connection from=":J2_3" to="E3" fromLane="0" toLane="0" dir="l" state="M" />
    <connection from=":J2_4" to="-E0" fromLane="0" toLane="0" dir="s" state="M" />
    <connection from=":J2_5" to="-E2" fromLane="0" toLane="0" via=":J2_13_0" dir="r" state="m" />
    <connection from=":J2_13" to="-E2" fromLane="0" toLane="0" dir="r" state="M" />
    <connection from=":J2_6" to="E1" fromLane="0" toLane="0" dir="l" state="M" />
    <connection from=":J2_7" to="E3" fromLane="0" toLane="0" dir="s" state="M" />
    <connection from=":J2_8" to="-E0" fromLane="0" toLane="0" via=":J2_14_0" dir="r" state="m" />
    <connection from=":J2_14" to="-E0" fromLane="0" toLane="0" dir="r" state="M" />
    <connection from=":J2_9" to="-E2" fromLane="0" toLane="0" dir="l" state="M" />
    <connection from=":J2_10" to="E1" fromLane="0" toLane="0" dir="s" state="M" />
    <connection from=":J2_11" to="E3" fromLane="0" toLane="0" via=":J2_15_0" dir="r" state="m" />
    <connection from=":J2_15" to="E3" fromLane="0" toLane="0" dir="r" state="M" />

</net>